LAMMPS (2 Aug 2023 - Update 3)
# 1) System initialization

units       lj
boundary    p p p
atom_style  atomic

variable box_size           equal 10
variable volume             equal 10*10*10

# 1) NVT ensemble simulation with Nose-Hoover thermostat

variable step               equal 0.025
variable nsteps             equal 5

label loop_start
variable index loop         1 5
variable numberDensity      equal 0.2-1*0.025
variable nParticles         equal 0.175*1000

Simulation for density = 0.175

variable region_name string     simulation_box_0.175
region simulation_box_0.175 block     0.0 10 0.0 10 0.0 10
create_box 1 simulation_box_0.175
Created orthogonal box = (0 0 0) to (10 10 10)
create_atoms                    1 random 175 234567 NULL overlap 1.3
Created 175 atoms

mass        1 1.0
velocity    all create 1.0 87242 mom yes dist gaussian
pair_style  lj/cut 2
pair_coeff  1 1 1.0 1.0
pair_modify tail yes

neighbor     0.3 bin
neigh_modify delay 0 every 10 check yes

print "Equilibration"
Equilibration

fix         equilibration all nvt temp 2 2 1
timestep    0.001
run         50000
Generated 0 of 0 mixed pair_coeff terms from geometric mixing rule
Step          Temp          E_pair         E_mol          TotEng         Press
0   1             -0.75792892     0              0.73349966    -0.068564294
Loop time of 0.321725 on 1 procs for 50000 steps with 175 atoms

unfix       equilibration

print "Production"
Production

variable    kinEnergy equal ke
variable    temperature equal temp
fix         production all nvt temp 2 2 1
timestep    0.001
fix         2 all ave/time 20 50 1000 v_kinEnergy v_temperature file average_0.175.out
thermo      10000
thermo_style custom step pe ke etotal temp press density
run         450000
Generated 0 of 0 mixed pair_coeff terms from geometric mixing rule
Step         PotEng         KinEng         TotEng          Temp          Press         Density
50000  -1.1023401      3.0050446      1.9027045      2.0148767      0.37183755     0.175
Averages over the last 23 of 46 rows, steps 280000 to 500000:
PotEng KinEng TotEng Temp Press Density
-1.10989 3.01012 1.90023 2.01828 0.297293 0.175
Loop time of 2.75613 on 1 procs for 450000 steps with 175 atoms

unfix       production
clear
next        index
jump        SELF loop_start
variable index loop         1 5
variable numberDensity      equal 0.2-2*0.025
variable nParticles         equal 0.15*1000

Simulation for density = 0.15

variable region_name string     simulation_box_0.15
region simulation_box_0.15 block     0.0 10 0.0 10 0.0 10
create_box 1 simulation_box_0.15
Created orthogonal box = (0 0 0) to (10 10 10)
create_atoms                    1 random 150 234567 NULL overlap 1.3
Created 150 atoms

mass        1 1.0
velocity    all create 1.0 87242 mom yes dist gaussian
pair_style  lj/cut 2
pair_coeff  1 1 1.0 1.0
pair_modify tail yes

neighbor     0.3 bin
neigh_modify delay 0 every 10 check yes

print "Equilibration"
Equilibration

fix         equilibration all nvt temp 2 2 1
timestep    0.001
run         50000
Generated 0 of 0 mixed pair_coeff terms from geometric mixing rule
Step          Temp          E_pair         E_mol          TotEng         Press
0   1             -0.62968704     0              0.86031296    -0.023901771
Loop time of 0.228272 on 1 procs for 50000 steps with 150 atoms

unfix       equilibration

print "Production"
Production

variable    kinEnergy equal ke
variable    temperature equal temp
fix         production all nvt temp 2 2 1
timestep    0.001
fix         2 all ave/time 20 50 1000 v_kinEnergy v_temperature file average_0.15.out
thermo      10000
thermo_style custom step pe ke etotal temp press density
run         450000
Generated 0 of 0 mixed pair_coeff terms from geometric mixing rule
Step         PotEng         KinEng         TotEng          Temp          Press         Density
50000  -0.88627124     2.7055093      1.8192381      1.8157781      0.2281954      0.15
Averages over the last 23 of 46 rows, steps 280000 to 500000:
PotEng KinEng TotEng Temp Press Density
-0.97254 3.00788 2.03534 2.01871 0.253843 0.15
Loop time of 2.0906 on 1 procs for 450000 steps with 150 atoms

unfix       production
clear
next        index
jump        SELF loop_start
variable index loop         1 5
variable numberDensity      equal 0.2-3*0.025
variable nParticles         equal 0.125*1000

Simulation for density = 0.125

variable region_name string     simulation_box_0.125
region simulation_box_0.125 block     0.0 10 0.0 10 0.0 10
create_box 1 simulation_box_0.125
Created orthogonal box = (0 0 0) to (10 10 10)
create_atoms                    1 random 125 234567 NULL overlap 1.3
Created 125 atoms

mass        1 1.0
velocity    all create 1.0 87242 mom yes dist gaussian
pair_style  lj/cut 2
pair_coeff  1 1 1.0 1.0
pair_modify tail yes

neighbor     0.3 bin
neigh_modify delay 0 every 10 check yes

print "Equilibration"
Equilibration

fix         equilibration all nvt temp 2 2 1
timestep    0.001
run         50000
Generated 0 of 0 mixed pair_coeff terms from geometric mixing rule
Step          Temp          E_pair         E_mol          TotEng         Press
0   1             -0.51896848     0              0.96903152     0.0051316919
Loop time of 0.173992 on 1 procs for 50000 steps with 125 atoms

unfix       equilibration

print "Production"
Production

variable    kinEnergy equal ke
variable    temperature equal temp
fix         production all nvt temp 2 2 1
timestep    0.001
fix         2 all ave/time 20 50 1000 v_kinEnergy v_temperature file average_0.125.out
thermo      10000
thermo_style custom step pe ke etotal temp press density
run         450000
Generated 0 of 0 mixed pair_coeff terms from geometric mixing rule
Step         PotEng         KinEng         TotEng          Temp          Press         Density
50000  -0.81636021     2.9461766      2.1298164      1.9799574      0.14659179     0.125
Averages over the last 23 of 46 rows, steps 280000 to 500000:
PotEng KinEng TotEng Temp Press Density
-0.793814 2.99433 2.20051 2.01232 0.215136 0.125
Loop time of 1.5948 on 1 procs for 450000 steps with 125 atoms

unfix       production
clear
next        index
jump        SELF loop_start
variable index loop         1 5
variable numberDensity      equal 0.2-4*0.025
variable nParticles         equal 0.1*1000

Simulation for density = 0.1

variable region_name string     simulation_box_0.1
region simulation_box_0.1 block     0.0 10 0.0 10 0.0 10
create_box 1 simulation_box_0.1
Created orthogonal box = (0 0 0) to (10 10 10)
create_atoms                    1 random 100 234567 NULL overlap 1.3
Created 100 atoms

mass        1 1.0
velocity    all create 1.0 87242 mom yes dist gaussian
pair_style  lj/cut 2
pair_coeff  1 1 1.0 1.0
pair_modify tail yes

neighbor     0.3 bin
neigh_modify delay 0 every 10 check yes

print "Equilibration"
Equilibration

fix         equilibration all nvt temp 2 2 1
timestep    0.001
run         50000
Generated 0 of 0 mixed pair_coeff terms from geometric mixing rule
Step          Temp          E_pair         E_mol          TotEng         Press
0   1             -0.39274348     0              1.0922565      0.026440074
Loop time of 0.13064 on 1 procs for 50000 steps with 100 atoms

unfix       equilibration

print "Production"
Production

variable    kinEnergy equal ke
variable    temperature equal temp
fix         production all nvt temp 2 2 1
timestep    0.001
fix         2 all ave/time 20 50 1000 v_kinEnergy v_temperature file average_0.1.out
thermo      10000
thermo_style custom step pe ke etotal temp press density
run         450000
Generated 0 of 0 mixed pair_coeff terms from geometric mixing rule
Step         PotEng         KinEng         TotEng          Temp          Press         Density
50000  -0.49569245     2.6924411      2.1967486      1.8130916      0.23614841     0.1
Averages over the last 23 of 46 rows, steps 280000 to 500000:
PotEng KinEng TotEng Temp Press Density
-0.668244 2.97558 2.30734 2.00376 0.172935 0.1
Loop time of 1.20191 on 1 procs for 450000 steps with 100 atoms

unfix       production
clear
next        index
jump        SELF loop_start
variable index loop         1 5
variable numberDensity      equal 0.2-5*0.025
variable nParticles         equal 0.075*1000

Simulation for density = 0.075

variable region_name string     simulation_box_0.075
region simulation_box_0.075 block     0.0 10 0.0 10 0.0 10
create_box 1 simulation_box_0.075
Created orthogonal box = (0 0 0) to (10 10 10)
create_atoms                    1 random 75 234567 NULL overlap 1.3
Created 75 atoms

mass        1 1.0
velocity    all create 1.0 87242 mom yes dist gaussian
pair_style  lj/cut 2
pair_coeff  1 1 1.0 1.0
pair_modify tail yes

neighbor     0.3 bin
neigh_modify delay 0 every 10 check yes

print "Equilibration"
Equilibration

fix         equilibration all nvt temp 2 2 1
timestep    0.001
run         50000
Generated 0 of 0 mixed pair_coeff terms from geometric mixing rule
Step          Temp          E_pair         E_mol          TotEng         Press
0   1             -0.2853785      0              1.1946215      0.034514115
Loop time of 0.0905499 on 1 procs for 50000 steps with 75 atoms

unfix       equilibration

print "Production"
Production

variable    kinEnergy equal ke
variable    temperature equal temp
fix         production all nvt temp 2 2 1
timestep    0.001
fix         2 all ave/time 20 50 1000 v_kinEnergy v_temperature file average_0.075.out
thermo      10000
thermo_style custom step pe ke etotal temp press density
run         450000
Generated 0 of 0 mixed pair_coeff terms from geometric mixing rule
Step         PotEng         KinEng         TotEng          Temp          Press         Density
50000  -0.59954782     2.7544569      2.1549091      1.8611195      0.089117772    0.075
Averages over the last 23 of 46 rows, steps 280000 to 500000:
PotEng KinEng TotEng Temp Press Density
-0.469445 2.87495 2.40551 1.94253 0.136263 0.075
Loop time of 0.819933 on 1 procs for 450000 steps with 75 atoms

unfix       production
clear
next        index
jump        SELF loop_start
