LAMMPS (2 Aug 2023 - Update 3)
# 1) System initialization

units       lj
boundary    p p p
atom_style  atomic

variable box_size           equal 10
variable volume             equal 10*10*10

# 1) NVT ensemble simulation with velocity rescaling

variable step               equal 0.025
variable nsteps             equal 5

label loop_start
variable index loop         1 5
variable numberDensity      equal 0.2-1*0.025
variable nParticles         equal 0.175*1000

Simulation for density = 0.175

variable region_name string     simulation_box_0.175
region simulation_box_0.175 block     0.0 10 0.0 10 0.0 10
create_box 1 simulation_box_0.175
Created orthogonal box = (0 0 0) to (10 10 10)
create_atoms                    1 random 175 234567 NULL overlap 1.3
Created 175 atoms

mass        1 1.0
velocity    all create 1.0 87242 mom yes dist gaussian
pair_style  lj/cut 2
pair_coeff  1 1 1.0 1.0
pair_modify tail yes

neighbor     0.3 bin
neigh_modify delay 0 every 10 check yes

print "Equilibration"
Equilibration

fix         equilibration all temp/rescale 1000 2.0 2.0 0.02 0.5
timestep    0.001
run         50000
Generated 0 of 0 mixed pair_coeff terms from geometric mixing rule
Step          Temp          E_pair         E_mol          TotEng         Press
0   1             -0.75792892     0              0.73349966    -0.068564294
Loop time of 0.153643 on 1 procs for 50000 steps with 175 atoms

unfix       equilibration

print "Production"
Production

variable    kinEnergy equal ke
variable    temperature equal temp
fix         production all temp/rescale 100 2.0 2.0 0.02 0.5
timestep    0.001
fix         2 all ave/time 20 50 1000 v_kinEnergy v_temperature file average_0.175.out
thermo      10000
thermo_style custom step pe ke etotal temp press density
run         450000
Generated 0 of 0 mixed pair_coeff terms from geometric mixing rule
Step         PotEng         KinEng         TotEng          Temp          Press         Density
50000  -0.75792892     2.9595536      2.2016247      1.984375       0.10271696     0.175
Averages over the last 23 of 46 rows, steps 280000 to 500000:
PotEng KinEng TotEng Temp Press Density
-0.757929 2.95955 2.20162 1.98438 0.102717 0.175
Loop time of 1.15591 on 1 procs for 450000 steps with 175 atoms

unfix       production
clear
next        index
jump        SELF loop_start
variable index loop         1 5
variable numberDensity      equal 0.2-2*0.025
variable nParticles         equal 0.15*1000

Simulation for density = 0.15

variable region_name string     simulation_box_0.15
region simulation_box_0.15 block     0.0 10 0.0 10 0.0 10
create_box 1 simulation_box_0.15
Created orthogonal box = (0 0 0) to (10 10 10)
create_atoms                    1 random 150 234567 NULL overlap 1.3
Created 150 atoms

mass        1 1.0
velocity    all create 1.0 87242 mom yes dist gaussian
pair_style  lj/cut 2
pair_coeff  1 1 1.0 1.0
pair_modify tail yes

neighbor     0.3 bin
neigh_modify delay 0 every 10 check yes

print "Equilibration"
Equilibration

fix         equilibration all temp/rescale 1000 2.0 2.0 0.02 0.5
timestep    0.001
run         50000
Generated 0 of 0 mixed pair_coeff terms from geometric mixing rule
Step          Temp          E_pair         E_mol          TotEng         Press
0   1             -0.62968704     0              0.86031296    -0.023901771
Loop time of 0.0976632 on 1 procs for 50000 steps with 150 atoms

unfix       equilibration

print "Production"
Production

variable    kinEnergy equal ke
variable    temperature equal temp
fix         production all temp/rescale 100 2.0 2.0 0.02 0.5
timestep    0.001
fix         2 all ave/time 20 50 1000 v_kinEnergy v_temperature file average_0.15.out
thermo      10000
thermo_style custom step pe ke etotal temp press density
run         450000
Generated 0 of 0 mixed pair_coeff terms from geometric mixing rule
Step         PotEng         KinEng         TotEng          Temp          Press         Density
50000  -0.62968704     2.9567187      2.3270317      1.984375       0.1227701      0.15
Averages over the last 23 of 46 rows, steps 280000 to 500000:
PotEng KinEng TotEng Temp Press Density
-0.629687 2.95672 2.32703 1.98438 0.12277 0.15
Loop time of 0.896508 on 1 procs for 450000 steps with 150 atoms

unfix       production
clear
next        index
jump        SELF loop_start
variable index loop         1 5
variable numberDensity      equal 0.2-3*0.025
variable nParticles         equal 0.125*1000

Simulation for density = 0.125

variable region_name string     simulation_box_0.125
region simulation_box_0.125 block     0.0 10 0.0 10 0.0 10
create_box 1 simulation_box_0.125
Created orthogonal box = (0 0 0) to (10 10 10)
create_atoms                    1 random 125 234567 NULL overlap 1.3
Created 125 atoms

mass        1 1.0
velocity    all create 1.0 87242 mom yes dist gaussian
pair_style  lj/cut 2
pair_coeff  1 1 1.0 1.0
pair_modify tail yes

neighbor     0.3 bin
neigh_modify delay 0 every 10 check yes

print "Equilibration"
Equilibration

fix         equilibration all temp/rescale 1000 2.0 2.0 0.02 0.5
timestep    0.001
run         50000
Generated 0 of 0 mixed pair_coeff terms from geometric mixing rule
Step          Temp          E_pair         E_mol          TotEng         Press
0   1             -0.51896848     0              0.96903152     0.0051316919
Loop time of 0.0739395 on 1 procs for 50000 steps with 125 atoms

unfix       equilibration

print "Production"
Production

variable    kinEnergy equal ke
variable    temperature equal temp
fix         production all temp/rescale 100 2.0 2.0 0.02 0.5
timestep    0.001
fix         2 all ave/time 20 50 1000 v_kinEnergy v_temperature file average_0.125.out
thermo      10000
thermo_style custom step pe ke etotal temp press density
run         450000
Generated 0 of 0 mixed pair_coeff terms from geometric mixing rule
Step         PotEng         KinEng         TotEng          Temp          Press         Density
50000  -0.51896848     2.95275        2.4337815      1.984375       0.12719419     0.125
Averages over the last 23 of 46 rows, steps 280000 to 500000:
PotEng KinEng TotEng Temp Press Density
-0.518968 2.95275 2.43378 1.98438 0.127194 0.125
Loop time of 0.682954 on 1 procs for 450000 steps with 125 atoms

unfix       production
clear
next        index
jump        SELF loop_start
variable index loop         1 5
variable numberDensity      equal 0.2-4*0.025
variable nParticles         equal 0.1*1000

Simulation for density = 0.1

variable region_name string     simulation_box_0.1
region simulation_box_0.1 block     0.0 10 0.0 10 0.0 10
create_box 1 simulation_box_0.1
Created orthogonal box = (0 0 0) to (10 10 10)
create_atoms                    1 random 100 234567 NULL overlap 1.3
Created 100 atoms

mass        1 1.0
velocity    all create 1.0 87242 mom yes dist gaussian
pair_style  lj/cut 2
pair_coeff  1 1 1.0 1.0
pair_modify tail yes

neighbor     0.3 bin
neigh_modify delay 0 every 10 check yes

print "Equilibration"
Equilibration

fix         equilibration all temp/rescale 1000 2.0 2.0 0.02 0.5
timestep    0.001
run         50000
Generated 0 of 0 mixed pair_coeff terms from geometric mixing rule
Step          Temp          E_pair         E_mol          TotEng         Press
0   1             -0.39274348     0              1.0922565      0.026440074
Loop time of 0.0530312 on 1 procs for 50000 steps with 100 atoms

unfix       equilibration

print "Production"
Production

variable    kinEnergy equal ke
variable    temperature equal temp
fix         production all temp/rescale 100 2.0 2.0 0.02 0.5
timestep    0.001
fix         2 all ave/time 20 50 1000 v_kinEnergy v_temperature file average_0.1.out
thermo      10000
thermo_style custom step pe ke etotal temp press density
run         450000
Generated 0 of 0 mixed pair_coeff terms from geometric mixing rule
Step         PotEng         KinEng         TotEng          Temp          Press         Density
50000  -0.39274348     2.9467969      2.5540534      1.984375       0.1238932      0.1
Averages over the last 23 of 46 rows, steps 280000 to 500000:
PotEng KinEng TotEng Temp Press Density
-0.392743 2.9468 2.55405 1.98438 0.123893 0.1
Loop time of 0.493863 on 1 procs for 450000 steps with 100 atoms

unfix       production
clear
next        index
jump        SELF loop_start
variable index loop         1 5
variable numberDensity      equal 0.2-5*0.025
variable nParticles         equal 0.075*1000

Simulation for density = 0.075

variable region_name string     simulation_box_0.075
region simulation_box_0.075 block     0.0 10 0.0 10 0.0 10
create_box 1 simulation_box_0.075
Created orthogonal box = (0 0 0) to (10 10 10)
create_atoms                    1 random 75 234567 NULL overlap 1.3
Created 75 atoms

mass        1 1.0
velocity    all create 1.0 87242 mom yes dist gaussian
pair_style  lj/cut 2
pair_coeff  1 1 1.0 1.0
pair_modify tail yes

neighbor     0.3 bin
neigh_modify delay 0 every 10 check yes

print "Equilibration"
Equilibration

fix         equilibration all temp/rescale 1000 2.0 2.0 0.02 0.5
timestep    0.001
run         50000
Generated 0 of 0 mixed pair_coeff terms from geometric mixing rule
Step          Temp          E_pair         E_mol          TotEng         Press
0   1             -0.2853785      0              1.1946215      0.034514115
Loop time of 0.0369124 on 1 procs for 50000 steps with 75 atoms

unfix       equilibration

print "Production"
Production

variable    kinEnergy equal ke
variable    temperature equal temp
fix         production all temp/rescale 100 2.0 2.0 0.02 0.5
timestep    0.001
fix         2 all ave/time 20 50 1000 v_kinEnergy v_temperature file average_0.075.out
thermo      10000
thermo_style custom step pe ke etotal temp press density
run         450000
Generated 0 of 0 mixed pair_coeff terms from geometric mixing rule
Step         PotEng         KinEng         TotEng          Temp          Press         Density
50000  -0.2853785      2.936875       2.6514965      1.984375       0.10735787     0.075
Averages over the last 23 of 46 rows, steps 280000 to 500000:
PotEng KinEng TotEng Temp Press Density
-0.285378 2.93688 2.6515 1.98438 0.107358 0.075
Loop time of 0.344928 on 1 procs for 450000 steps with 75 atoms

unfix       production
clear
next        index
jump        SELF loop_start
