LAMMPS (19 Nov 2024 - Development - patch_19Nov2024-119-gf00addcfaf)
# 1) System initialization

units       lj
boundary    p p p
atom_style  atomic

variable box_size           equal 10
variable volume             equal 10*10*10
variable numberDensity      equal 0.2
variable nParticles         equal 0.2*1000

# 1) NVE ensemble simulation

variable initialCutOff      equal 2^(1.0/6.0)
variable finalCutOff        equal 4.0
variable step               equal 0.2
variable cutOffInterval     equal 4-1.12246204830937
variable nsteps             equal ceil(2.87753795169063/0.2)+1

label loop_start
variable index loop         1 16
variable r_cut              equal floor((1.12246204830937+(1-1)*0.2)*100)/100

Simulation for r_cut = 1.12

variable region_name string     simulation_box_1.12
region simulation_box_1.12 block     0.0 10 0.0 10 0.0 10
create_box 1 simulation_box_1.12
Created orthogonal box = (0 0 0) to (10 10 10)
create_atoms                    1 random 200 234567 NULL overlap 1.3
Created 200 atoms

mass        1 1.0
velocity    all create 1.0 87242 mom yes dist gaussian
pair_style  lj/cut 1.12
pair_coeff  1 1 1.0 1.0
pair_modify tail yes

neighbor     0.3 bin
neigh_modify delay 0 every 10 check yes

thermo_style custom step pe ke etotal temp press density
thermo       10000

print "Equilibration"
Equilibration

fix         equilibration all nve
timestep    0.001
run         50000
Generated 0 of 0 mixed pair_coeff terms from geometric mixing rule
Step         PotEng         KinEng         TotEng          Temp          Press         Density
0  -0.99119662     1.4925         0.50130338     1             -0.1169176      0.2
Loop time of 0.27271 on 1 procs for 50000 steps with 200 atoms

unfix       equilibration

compute rdf_all all rdf 100  # 100 bins for g(r)
variable rdf_file string rdf_1.12.dat
fix rdf_out all ave/time 100 1 100 c_rdf_all[*] file rdf_1.12.dat mode vector

print "Production"
Production

fix         production all nve
timestep    0.001
run         150000
Generated 0 of 0 mixed pair_coeff terms from geometric mixing rule
Step         PotEng         KinEng         TotEng          Temp          Press         Density
50000  -1.1044587      1.4158398      0.31138112     0.94863639     0.0084873579   0.2
Averages over the last 8 of 16 rows, steps 130000 to 200000:
PotEng KinEng TotEng Temp Press Density
-1.108 1.43318 0.325184 0.960256 -0.0120216 0.2
Loop time of 1.01863 on 1 procs for 150000 steps with 200 atoms

unfix       production
unfix       rdf_out
clear
next        index
jump        SELF loop_start
variable index loop         1 16
variable r_cut              equal floor((1.12246204830937+(2-1)*0.2)*100)/100

Simulation for r_cut = 1.32

variable region_name string     simulation_box_1.32
region simulation_box_1.32 block     0.0 10 0.0 10 0.0 10
create_box 1 simulation_box_1.32
Created orthogonal box = (0 0 0) to (10 10 10)
create_atoms                    1 random 200 234567 NULL overlap 1.3
Created 200 atoms

mass        1 1.0
velocity    all create 1.0 87242 mom yes dist gaussian
pair_style  lj/cut 1.32
pair_coeff  1 1 1.0 1.0
pair_modify tail yes

neighbor     0.3 bin
neigh_modify delay 0 every 10 check yes

thermo_style custom step pe ke etotal temp press density
thermo       10000

print "Equilibration"
Equilibration

fix         equilibration all nve
timestep    0.001
run         50000
Generated 0 of 0 mixed pair_coeff terms from geometric mixing rule
Step         PotEng         KinEng         TotEng          Temp          Press         Density
0  -0.72716373     1.4925         0.76533627     1             -0.069078262    0.2
Loop time of 0.388976 on 1 procs for 50000 steps with 200 atoms

unfix       equilibration

compute rdf_all all rdf 100  # 100 bins for g(r)
variable rdf_file string rdf_1.32.dat
fix rdf_out all ave/time 100 1 100 c_rdf_all[*] file rdf_1.32.dat mode vector

print "Production"
Production

fix         production all nve
timestep    0.001
run         150000
Generated 0 of 0 mixed pair_coeff terms from geometric mixing rule
Step         PotEng         KinEng         TotEng          Temp          Press         Density
50000  -1.2198268      1.5723481      0.35252131     1.0534995      0.10710552     0.2
Averages over the last 8 of 16 rows, steps 130000 to 200000:
PotEng KinEng TotEng Temp Press Density
-1.25512 1.60399 0.348871 1.0747 0.054683 0.2
Loop time of 1.28727 on 1 procs for 150000 steps with 200 atoms

unfix       production
unfix       rdf_out
clear
next        index
jump        SELF loop_start
variable index loop         1 16
variable r_cut              equal floor((1.12246204830937+(3-1)*0.2)*100)/100

Simulation for r_cut = 1.52

variable region_name string     simulation_box_1.52
region simulation_box_1.52 block     0.0 10 0.0 10 0.0 10
create_box 1 simulation_box_1.52
Created orthogonal box = (0 0 0) to (10 10 10)
create_atoms                    1 random 200 234567 NULL overlap 1.3
Created 200 atoms

mass        1 1.0
velocity    all create 1.0 87242 mom yes dist gaussian
pair_style  lj/cut 1.52
pair_coeff  1 1 1.0 1.0
pair_modify tail yes

neighbor     0.3 bin
neigh_modify delay 0 every 10 check yes

thermo_style custom step pe ke etotal temp press density
thermo       10000

print "Equilibration"
Equilibration

fix         equilibration all nve
timestep    0.001
run         50000
Generated 0 of 0 mixed pair_coeff terms from geometric mixing rule
Step         PotEng         KinEng         TotEng          Temp          Press         Density
0  -0.80716172     1.4925         0.68533828     1             -0.095688066    0.2
Loop time of 0.510883 on 1 procs for 50000 steps with 200 atoms

unfix       equilibration

compute rdf_all all rdf 100  # 100 bins for g(r)
variable rdf_file string rdf_1.52.dat
fix rdf_out all ave/time 100 1 100 c_rdf_all[*] file rdf_1.52.dat mode vector

print "Production"
Production

fix         production all nve
timestep    0.001
run         150000
Generated 0 of 0 mixed pair_coeff terms from geometric mixing rule
Step         PotEng         KinEng         TotEng          Temp          Press         Density
50000  -1.362689       1.8492024      0.48651342     1.2389966      0.066400281    0.2
Averages over the last 8 of 16 rows, steps 130000 to 200000:
PotEng KinEng TotEng Temp Press Density
-1.32603 1.82697 0.500949 1.2241 0.107955 0.2
Loop time of 1.69257 on 1 procs for 150000 steps with 200 atoms

unfix       production
unfix       rdf_out
clear
next        index
jump        SELF loop_start
variable index loop         1 16
variable r_cut              equal floor((1.12246204830937+(4-1)*0.2)*100)/100

Simulation for r_cut = 1.72

variable region_name string     simulation_box_1.72
region simulation_box_1.72 block     0.0 10 0.0 10 0.0 10
create_box 1 simulation_box_1.72
Created orthogonal box = (0 0 0) to (10 10 10)
create_atoms                    1 random 200 234567 NULL overlap 1.3
Created 200 atoms

mass        1 1.0
velocity    all create 1.0 87242 mom yes dist gaussian
pair_style  lj/cut 1.72
pair_coeff  1 1 1.0 1.0
pair_modify tail yes

neighbor     0.3 bin
neigh_modify delay 0 every 10 check yes

thermo_style custom step pe ke etotal temp press density
thermo       10000

print "Equilibration"
Equilibration

fix         equilibration all nve
timestep    0.001
run         50000
Generated 0 of 0 mixed pair_coeff terms from geometric mixing rule
Step         PotEng         KinEng         TotEng          Temp          Press         Density
0  -0.8641776      1.4925         0.6283224      1             -0.1170568      0.2
Loop time of 0.668459 on 1 procs for 50000 steps with 200 atoms

unfix       equilibration

compute rdf_all all rdf 100  # 100 bins for g(r)
variable rdf_file string rdf_1.72.dat
fix rdf_out all ave/time 100 1 100 c_rdf_all[*] file rdf_1.72.dat mode vector

print "Production"
Production

fix         production all nve
timestep    0.001
run         150000
Generated 0 of 0 mixed pair_coeff terms from geometric mixing rule
Step         PotEng         KinEng         TotEng          Temp          Press         Density
50000  -1.4659136      2.0147313      0.54881772     1.3499037      0.077613489    0.2
Averages over the last 8 of 16 rows, steps 130000 to 200000:
PotEng KinEng TotEng Temp Press Density
-1.39097 1.9519 0.560935 1.30781 0.114159 0.2
Loop time of 2.15949 on 1 procs for 150000 steps with 200 atoms

unfix       production
unfix       rdf_out
clear
next        index
jump        SELF loop_start
variable index loop         1 16
variable r_cut              equal floor((1.12246204830937+(5-1)*0.2)*100)/100

Simulation for r_cut = 1.92

variable region_name string     simulation_box_1.92
region simulation_box_1.92 block     0.0 10 0.0 10 0.0 10
create_box 1 simulation_box_1.92
Created orthogonal box = (0 0 0) to (10 10 10)
create_atoms                    1 random 200 234567 NULL overlap 1.3
Created 200 atoms

mass        1 1.0
velocity    all create 1.0 87242 mom yes dist gaussian
pair_style  lj/cut 1.92
pair_coeff  1 1 1.0 1.0
pair_modify tail yes

neighbor     0.3 bin
neigh_modify delay 0 every 10 check yes

thermo_style custom step pe ke etotal temp press density
thermo       10000

print "Equilibration"
Equilibration

fix         equilibration all nve
timestep    0.001
run         50000
Generated 0 of 0 mixed pair_coeff terms from geometric mixing rule
Step         PotEng         KinEng         TotEng          Temp          Press         Density
0  -0.8834701      1.4925         0.6090299      1             -0.12451058     0.2
Loop time of 0.826338 on 1 procs for 50000 steps with 200 atoms

unfix       equilibration

compute rdf_all all rdf 100  # 100 bins for g(r)
variable rdf_file string rdf_1.92.dat
fix rdf_out all ave/time 100 1 100 c_rdf_all[*] file rdf_1.92.dat mode vector

print "Production"
Production

fix         production all nve
timestep    0.001
run         150000
Generated 0 of 0 mixed pair_coeff terms from geometric mixing rule
Step         PotEng         KinEng         TotEng          Temp          Press         Density
50000  -1.3704794      1.961727       0.59124756     1.3143899      0.13851258     0.2
Averages over the last 8 of 16 rows, steps 130000 to 200000:
PotEng KinEng TotEng Temp Press Density
-1.39102 1.97843 0.587412 1.32558 0.132966 0.2
Loop time of 2.61247 on 1 procs for 150000 steps with 200 atoms

unfix       production
unfix       rdf_out
clear
next        index
jump        SELF loop_start
variable index loop         1 16
variable r_cut              equal floor((1.12246204830937+(6-1)*0.2)*100)/100

Simulation for r_cut = 2.12

variable region_name string     simulation_box_2.12
region simulation_box_2.12 block     0.0 10 0.0 10 0.0 10
create_box 1 simulation_box_2.12
Created orthogonal box = (0 0 0) to (10 10 10)
create_atoms                    1 random 200 234567 NULL overlap 1.3
Created 200 atoms

mass        1 1.0
velocity    all create 1.0 87242 mom yes dist gaussian
pair_style  lj/cut 2.12
pair_coeff  1 1 1.0 1.0
pair_modify tail yes

neighbor     0.3 bin
neigh_modify delay 0 every 10 check yes

thermo_style custom step pe ke etotal temp press density
thermo       10000

print "Equilibration"
Equilibration

fix         equilibration all nve
timestep    0.001
run         50000
Generated 0 of 0 mixed pair_coeff terms from geometric mixing rule
Step         PotEng         KinEng         TotEng          Temp          Press         Density
0  -0.88032984     1.4925         0.61217016     1             -0.12328254     0.2
Loop time of 1.07548 on 1 procs for 50000 steps with 200 atoms

unfix       equilibration

compute rdf_all all rdf 100  # 100 bins for g(r)
variable rdf_file string rdf_2.12.dat
fix rdf_out all ave/time 100 1 100 c_rdf_all[*] file rdf_2.12.dat mode vector

print "Production"
Production

fix         production all nve
timestep    0.001
run         150000
Generated 0 of 0 mixed pair_coeff terms from geometric mixing rule
Step         PotEng         KinEng         TotEng          Temp          Press         Density
50000  -1.4292549      2.0262935      0.59703868     1.3576506      0.16857738     0.2
Averages over the last 8 of 16 rows, steps 130000 to 200000:
PotEng KinEng TotEng Temp Press Density
-1.43197 2.02576 0.593786 1.35729 0.122455 0.2
Loop time of 3.3354 on 1 procs for 150000 steps with 200 atoms

unfix       production
unfix       rdf_out
clear
next        index
jump        SELF loop_start
variable index loop         1 16
variable r_cut              equal floor((1.12246204830937+(7-1)*0.2)*100)/100

Simulation for r_cut = 2.32

variable region_name string     simulation_box_2.32
region simulation_box_2.32 block     0.0 10 0.0 10 0.0 10
create_box 1 simulation_box_2.32
Created orthogonal box = (0 0 0) to (10 10 10)
create_atoms                    1 random 200 234567 NULL overlap 1.3
Created 200 atoms

mass        1 1.0
velocity    all create 1.0 87242 mom yes dist gaussian
pair_style  lj/cut 2.32
pair_coeff  1 1 1.0 1.0
pair_modify tail yes

neighbor     0.3 bin
neigh_modify delay 0 every 10 check yes

thermo_style custom step pe ke etotal temp press density
thermo       10000

print "Equilibration"
Equilibration

fix         equilibration all nve
timestep    0.001
run         50000
Generated 0 of 0 mixed pair_coeff terms from geometric mixing rule
Step         PotEng         KinEng         TotEng          Temp          Press         Density
0  -0.87887012     1.4925         0.61362988     1             -0.12270508     0.2
Loop time of 1.31219 on 1 procs for 50000 steps with 200 atoms

unfix       equilibration

compute rdf_all all rdf 100  # 100 bins for g(r)
variable rdf_file string rdf_2.32.dat
fix rdf_out all ave/time 100 1 100 c_rdf_all[*] file rdf_2.32.dat mode vector

print "Production"
Production

fix         production all nve
timestep    0.001
run         150000
Generated 0 of 0 mixed pair_coeff terms from geometric mixing rule
Step         PotEng         KinEng         TotEng          Temp          Press         Density
50000  -1.3874284      1.9790574      0.59162892     1.3260016      0.19974686     0.2
Averages over the last 8 of 16 rows, steps 130000 to 200000:
PotEng KinEng TotEng Temp Press Density
-1.45725 2.05637 0.599128 1.37781 0.15149 0.2
Loop time of 4.17527 on 1 procs for 150000 steps with 200 atoms

unfix       production
unfix       rdf_out
clear
next        index
jump        SELF loop_start
variable index loop         1 16
variable r_cut              equal floor((1.12246204830937+(8-1)*0.2)*100)/100

Simulation for r_cut = 2.52

variable region_name string     simulation_box_2.52
region simulation_box_2.52 block     0.0 10 0.0 10 0.0 10
create_box 1 simulation_box_2.52
Created orthogonal box = (0 0 0) to (10 10 10)
create_atoms                    1 random 200 234567 NULL overlap 1.3
Created 200 atoms

mass        1 1.0
velocity    all create 1.0 87242 mom yes dist gaussian
pair_style  lj/cut 2.52
pair_coeff  1 1 1.0 1.0
pair_modify tail yes

neighbor     0.3 bin
neigh_modify delay 0 every 10 check yes

thermo_style custom step pe ke etotal temp press density
thermo       10000

print "Equilibration"
Equilibration

fix         equilibration all nve
timestep    0.001
run         50000
Generated 0 of 0 mixed pair_coeff terms from geometric mixing rule
Step         PotEng         KinEng         TotEng          Temp          Press         Density
0  -0.87821939     1.4925         0.61428061     1             -0.12244552     0.2
Loop time of 1.62629 on 1 procs for 50000 steps with 200 atoms

unfix       equilibration

compute rdf_all all rdf 100  # 100 bins for g(r)
variable rdf_file string rdf_2.52.dat
fix rdf_out all ave/time 100 1 100 c_rdf_all[*] file rdf_2.52.dat mode vector

print "Production"
Production

fix         production all nve
timestep    0.001
run         150000
Generated 0 of 0 mixed pair_coeff terms from geometric mixing rule
Step         PotEng         KinEng         TotEng          Temp          Press         Density
50000  -1.4818674      2.0863957      0.60452827     1.39792        0.099413233    0.2
Averages over the last 8 of 16 rows, steps 130000 to 200000:
PotEng KinEng TotEng Temp Press Density
-1.44711 2.05245 0.60534 1.37517 0.135563 0.2
Loop time of 5.04638 on 1 procs for 150000 steps with 200 atoms

unfix       production
unfix       rdf_out
clear
next        index
jump        SELF loop_start
variable index loop         1 16
variable r_cut              equal floor((1.12246204830937+(9-1)*0.2)*100)/100

Simulation for r_cut = 2.72

variable region_name string     simulation_box_2.72
region simulation_box_2.72 block     0.0 10 0.0 10 0.0 10
create_box 1 simulation_box_2.72
Created orthogonal box = (0 0 0) to (10 10 10)
create_atoms                    1 random 200 234567 NULL overlap 1.3
Created 200 atoms

mass        1 1.0
velocity    all create 1.0 87242 mom yes dist gaussian
pair_style  lj/cut 2.72
pair_coeff  1 1 1.0 1.0
pair_modify tail yes

neighbor     0.3 bin
neigh_modify delay 0 every 10 check yes

thermo_style custom step pe ke etotal temp press density
thermo       10000

print "Equilibration"
Equilibration

fix         equilibration all nve
timestep    0.001
run         50000
Generated 0 of 0 mixed pair_coeff terms from geometric mixing rule
Step         PotEng         KinEng         TotEng          Temp          Press         Density
0  -0.87840353     1.4925         0.61409647     1             -0.12251915     0.2
Loop time of 1.92899 on 1 procs for 50000 steps with 200 atoms

unfix       equilibration

compute rdf_all all rdf 100  # 100 bins for g(r)
variable rdf_file string rdf_2.72.dat
fix rdf_out all ave/time 100 1 100 c_rdf_all[*] file rdf_2.72.dat mode vector

print "Production"
Production

fix         production all nve
timestep    0.001
run         150000
Generated 0 of 0 mixed pair_coeff terms from geometric mixing rule
Step         PotEng         KinEng         TotEng          Temp          Press         Density
50000  -1.3744631      1.9840942      0.60963113     1.3293763      0.14602681     0.2
Averages over the last 8 of 16 rows, steps 130000 to 200000:
PotEng KinEng TotEng Temp Press Density
-1.48007 2.08745 0.60738 1.39862 0.125278 0.2
Loop time of 6.04557 on 1 procs for 150000 steps with 200 atoms

unfix       production
unfix       rdf_out
clear
next        index
jump        SELF loop_start
variable index loop         1 16
variable r_cut              equal floor((1.12246204830937+(10-1)*0.2)*100)/100

Simulation for r_cut = 2.92

variable region_name string     simulation_box_2.92
region simulation_box_2.92 block     0.0 10 0.0 10 0.0 10
create_box 1 simulation_box_2.92
Created orthogonal box = (0 0 0) to (10 10 10)
create_atoms                    1 random 200 234567 NULL overlap 1.3
Created 200 atoms

mass        1 1.0
velocity    all create 1.0 87242 mom yes dist gaussian
pair_style  lj/cut 2.92
pair_coeff  1 1 1.0 1.0
pair_modify tail yes

neighbor     0.3 bin
neigh_modify delay 0 every 10 check yes

thermo_style custom step pe ke etotal temp press density
thermo       10000

print "Equilibration"
Equilibration

fix         equilibration all nve
timestep    0.001
run         50000
Generated 0 of 0 mixed pair_coeff terms from geometric mixing rule
Step         PotEng         KinEng         TotEng          Temp          Press         Density
0  -0.87742936     1.4925         0.61507064     1             -0.12213037     0.2
Loop time of 2.42026 on 1 procs for 50000 steps with 200 atoms

unfix       equilibration

compute rdf_all all rdf 100  # 100 bins for g(r)
variable rdf_file string rdf_2.92.dat
fix rdf_out all ave/time 100 1 100 c_rdf_all[*] file rdf_2.92.dat mode vector

print "Production"
Production

fix         production all nve
timestep    0.001
run         150000
Generated 0 of 0 mixed pair_coeff terms from geometric mixing rule
Step         PotEng         KinEng         TotEng          Temp          Press         Density
50000  -1.4872317      2.0981788      0.61094717     1.405815       0.11227932     0.2
Averages over the last 8 of 16 rows, steps 130000 to 200000:
PotEng KinEng TotEng Temp Press Density
-1.47892 2.08856 0.609637 1.39937 0.116696 0.2
Loop time of 7.12018 on 1 procs for 150000 steps with 200 atoms

unfix       production
unfix       rdf_out
clear
next        index
jump        SELF loop_start
variable index loop         1 16
variable r_cut              equal floor((1.12246204830937+(11-1)*0.2)*100)/100

Simulation for r_cut = 3.12

variable region_name string     simulation_box_3.12
region simulation_box_3.12 block     0.0 10 0.0 10 0.0 10
create_box 1 simulation_box_3.12
Created orthogonal box = (0 0 0) to (10 10 10)
create_atoms                    1 random 200 234567 NULL overlap 1.3
Created 200 atoms

mass        1 1.0
velocity    all create 1.0 87242 mom yes dist gaussian
pair_style  lj/cut 3.12
pair_coeff  1 1 1.0 1.0
pair_modify tail yes

neighbor     0.3 bin
neigh_modify delay 0 every 10 check yes

thermo_style custom step pe ke etotal temp press density
thermo       10000

print "Equilibration"
Equilibration

fix         equilibration all nve
timestep    0.001
run         50000
Generated 0 of 0 mixed pair_coeff terms from geometric mixing rule
Step         PotEng         KinEng         TotEng          Temp          Press         Density
0  -0.87792125     1.4925         0.61457875     1             -0.12232685     0.2
Loop time of 2.77165 on 1 procs for 50000 steps with 200 atoms

unfix       equilibration

compute rdf_all all rdf 100  # 100 bins for g(r)
variable rdf_file string rdf_3.12.dat
fix rdf_out all ave/time 100 1 100 c_rdf_all[*] file rdf_3.12.dat mode vector

print "Production"
Production

fix         production all nve
timestep    0.001
run         150000
Generated 0 of 0 mixed pair_coeff terms from geometric mixing rule
Step         PotEng         KinEng         TotEng          Temp          Press         Density
50000  -1.4620305      2.0742008      0.61217032     1.3897493      0.12775706     0.2
Averages over the last 8 of 16 rows, steps 130000 to 200000:
PotEng KinEng TotEng Temp Press Density
-1.46741 2.07884 0.611423 1.39285 0.16385 0.2
Loop time of 8.52326 on 1 procs for 150000 steps with 200 atoms

unfix       production
unfix       rdf_out
clear
next        index
jump        SELF loop_start
variable index loop         1 16
variable r_cut              equal floor((1.12246204830937+(12-1)*0.2)*100)/100

Simulation for r_cut = 3.32

variable region_name string     simulation_box_3.32
region simulation_box_3.32 block     0.0 10 0.0 10 0.0 10
create_box 1 simulation_box_3.32
Created orthogonal box = (0 0 0) to (10 10 10)
create_atoms                    1 random 200 234567 NULL overlap 1.3
Created 200 atoms

mass        1 1.0
velocity    all create 1.0 87242 mom yes dist gaussian
pair_style  lj/cut 3.32
pair_coeff  1 1 1.0 1.0
pair_modify tail yes

neighbor     0.3 bin
neigh_modify delay 0 every 10 check yes

thermo_style custom step pe ke etotal temp press density
thermo       10000

print "Equilibration"
Equilibration

fix         equilibration all nve
timestep    0.001
run         50000
Generated 0 of 0 mixed pair_coeff terms from geometric mixing rule
Step         PotEng         KinEng         TotEng          Temp          Press         Density
0  -0.87766128     1.4925         0.61483872     1             -0.12222298     0.2
Loop time of 3.36191 on 1 procs for 50000 steps with 200 atoms

unfix       equilibration

compute rdf_all all rdf 100  # 100 bins for g(r)
variable rdf_file string rdf_3.32.dat
fix rdf_out all ave/time 100 1 100 c_rdf_all[*] file rdf_3.32.dat mode vector

print "Production"
Production

fix         production all nve
timestep    0.001
run         150000
Generated 0 of 0 mixed pair_coeff terms from geometric mixing rule
Step         PotEng         KinEng         TotEng          Temp          Press         Density
50000  -1.4960176      2.1087907      0.61277315     1.4129251      0.10843294     0.2
Averages over the last 8 of 16 rows, steps 130000 to 200000:
PotEng KinEng TotEng Temp Press Density
-1.44755 2.05996 0.612411 1.38021 0.162376 0.2
Loop time of 10.4796 on 1 procs for 150000 steps with 200 atoms

unfix       production
unfix       rdf_out
clear
next        index
jump        SELF loop_start
variable index loop         1 16
variable r_cut              equal floor((1.12246204830937+(13-1)*0.2)*100)/100

Simulation for r_cut = 3.52

variable region_name string     simulation_box_3.52
region simulation_box_3.52 block     0.0 10 0.0 10 0.0 10
create_box 1 simulation_box_3.52
Created orthogonal box = (0 0 0) to (10 10 10)
create_atoms                    1 random 200 234567 NULL overlap 1.3
Created 200 atoms

mass        1 1.0
velocity    all create 1.0 87242 mom yes dist gaussian
pair_style  lj/cut 3.52
pair_coeff  1 1 1.0 1.0
pair_modify tail yes

neighbor     0.3 bin
neigh_modify delay 0 every 10 check yes

thermo_style custom step pe ke etotal temp press density
thermo       10000

print "Equilibration"
Equilibration

fix         equilibration all nve
timestep    0.001
run         50000
Generated 0 of 0 mixed pair_coeff terms from geometric mixing rule
Step         PotEng         KinEng         TotEng          Temp          Press         Density
0  -0.87781776     1.4925         0.61468224     1             -0.12228551     0.2
Loop time of 3.86017 on 1 procs for 50000 steps with 200 atoms

unfix       equilibration

compute rdf_all all rdf 100  # 100 bins for g(r)
variable rdf_file string rdf_3.52.dat
fix rdf_out all ave/time 100 1 100 c_rdf_all[*] file rdf_3.52.dat mode vector

print "Production"
Production

fix         production all nve
timestep    0.001
run         150000
Generated 0 of 0 mixed pair_coeff terms from geometric mixing rule
Step         PotEng         KinEng         TotEng          Temp          Press         Density
50000  -1.5216394      2.1338237      0.61218424     1.4296976      0.1584962      0.2
Averages over the last 8 of 16 rows, steps 130000 to 200000:
PotEng KinEng TotEng Temp Press Density
-1.46033 2.07339 0.613056 1.3892 0.136029 0.2
Loop time of 12.0911 on 1 procs for 150000 steps with 200 atoms

unfix       production
unfix       rdf_out
clear
next        index
jump        SELF loop_start
variable index loop         1 16
variable r_cut              equal floor((1.12246204830937+(14-1)*0.2)*100)/100

Simulation for r_cut = 3.72

variable region_name string     simulation_box_3.72
region simulation_box_3.72 block     0.0 10 0.0 10 0.0 10
create_box 1 simulation_box_3.72
Created orthogonal box = (0 0 0) to (10 10 10)
create_atoms                    1 random 200 234567 NULL overlap 1.3
Created 200 atoms

mass        1 1.0
velocity    all create 1.0 87242 mom yes dist gaussian
pair_style  lj/cut 3.72
pair_coeff  1 1 1.0 1.0
pair_modify tail yes

neighbor     0.3 bin
neigh_modify delay 0 every 10 check yes

thermo_style custom step pe ke etotal temp press density
thermo       10000

print "Equilibration"
Equilibration

fix         equilibration all nve
timestep    0.001
run         50000
Generated 0 of 0 mixed pair_coeff terms from geometric mixing rule
Step         PotEng         KinEng         TotEng          Temp          Press         Density
0  -0.877834       1.4925         0.614666       1             -0.122292       0.2
Loop time of 4.52953 on 1 procs for 50000 steps with 200 atoms

unfix       equilibration

compute rdf_all all rdf 100  # 100 bins for g(r)
variable rdf_file string rdf_3.72.dat
fix rdf_out all ave/time 100 1 100 c_rdf_all[*] file rdf_3.72.dat mode vector

print "Production"
Production

fix         production all nve
timestep    0.001
run         150000
Generated 0 of 0 mixed pair_coeff terms from geometric mixing rule
Step         PotEng         KinEng         TotEng          Temp          Press         Density
50000  -1.5410767      2.1528819      0.61180518     1.4424669      0.20189916     0.2
Averages over the last 8 of 16 rows, steps 130000 to 200000:
PotEng KinEng TotEng Temp Press Density
-1.49343 2.10682 0.613394 1.4116 0.14506 0.2
Loop time of 14.2488 on 1 procs for 150000 steps with 200 atoms

unfix       production
unfix       rdf_out
clear
next        index
jump        SELF loop_start
variable index loop         1 16
variable r_cut              equal floor((1.12246204830937+(15-1)*0.2)*100)/100

Simulation for r_cut = 3.92

variable region_name string     simulation_box_3.92
region simulation_box_3.92 block     0.0 10 0.0 10 0.0 10
create_box 1 simulation_box_3.92
Created orthogonal box = (0 0 0) to (10 10 10)
create_atoms                    1 random 200 234567 NULL overlap 1.3
Created 200 atoms

mass        1 1.0
velocity    all create 1.0 87242 mom yes dist gaussian
pair_style  lj/cut 3.92
pair_coeff  1 1 1.0 1.0
pair_modify tail yes

neighbor     0.3 bin
neigh_modify delay 0 every 10 check yes

thermo_style custom step pe ke etotal temp press density
thermo       10000

print "Equilibration"
Equilibration

fix         equilibration all nve
timestep    0.001
run         50000
Generated 0 of 0 mixed pair_coeff terms from geometric mixing rule
Step         PotEng         KinEng         TotEng          Temp          Press         Density
0  -0.87774047     1.4925         0.61475953     1             -0.1222546      0.2
Loop time of 5.29413 on 1 procs for 50000 steps with 200 atoms

unfix       equilibration

compute rdf_all all rdf 100  # 100 bins for g(r)
variable rdf_file string rdf_3.92.dat
fix rdf_out all ave/time 100 1 100 c_rdf_all[*] file rdf_3.92.dat mode vector

print "Production"
Production

fix         production all nve
timestep    0.001
run         150000
Generated 0 of 0 mixed pair_coeff terms from geometric mixing rule
Step         PotEng         KinEng         TotEng          Temp          Press         Density
50000  -1.5134787      2.1267478      0.61326907     1.4249566      0.15004767     0.2
Averages over the last 8 of 16 rows, steps 130000 to 200000:
PotEng KinEng TotEng Temp Press Density
-1.49422 2.10788 0.613659 1.41231 0.135167 0.2
Loop time of 15.9355 on 1 procs for 150000 steps with 200 atoms

unfix       production
unfix       rdf_out
clear
next        index
jump        SELF loop_start
variable index loop         1 16
variable r_cut              equal floor((1.12246204830937+(16-1)*0.2)*100)/100

Simulation for r_cut = 4.12

variable region_name string     simulation_box_4.12
region simulation_box_4.12 block     0.0 10 0.0 10 0.0 10
create_box 1 simulation_box_4.12
Created orthogonal box = (0 0 0) to (10 10 10)
create_atoms                    1 random 200 234567 NULL overlap 1.3
Created 200 atoms

mass        1 1.0
velocity    all create 1.0 87242 mom yes dist gaussian
pair_style  lj/cut 4.12
pair_coeff  1 1 1.0 1.0
pair_modify tail yes

neighbor     0.3 bin
neigh_modify delay 0 every 10 check yes

thermo_style custom step pe ke etotal temp press density
thermo       10000

print "Equilibration"
Equilibration

fix         equilibration all nve
timestep    0.001
run         50000
Generated 0 of 0 mixed pair_coeff terms from geometric mixing rule
Step         PotEng         KinEng         TotEng          Temp          Press         Density
0  -0.87776081     1.4925         0.61473919     1             -0.12226273     0.2
Loop time of 6.10925 on 1 procs for 50000 steps with 200 atoms

unfix       equilibration

compute rdf_all all rdf 100  # 100 bins for g(r)
variable rdf_file string rdf_4.12.dat
fix rdf_out all ave/time 100 1 100 c_rdf_all[*] file rdf_4.12.dat mode vector

print "Production"
Production

fix         production all nve
timestep    0.001
run         150000
Generated 0 of 0 mixed pair_coeff terms from geometric mixing rule
Step         PotEng         KinEng         TotEng          Temp          Press         Density
50000  -1.4600073      2.0739388      0.61393148     1.3895737      0.18366298     0.2
Averages over the last 8 of 16 rows, steps 130000 to 200000:
PotEng KinEng TotEng Temp Press Density
-1.48648 2.10011 0.613635 1.40711 0.166532 0.2
Loop time of 18.1879 on 1 procs for 150000 steps with 200 atoms

unfix       production
unfix       rdf_out
clear
next        index
jump        SELF loop_start
